[root]
type=Root
children=system
eventq_index=0
full_system=false
sim_quantum=0
time_sync_enable=false
time_sync_period=100000000000
time_sync_spin_threshold=100000000

[system]
type=System
children=clk_domain cpu00 cpu01 cpu02 cpu03 cpu04 cpu05 cpu06 cpu07 cpu08 cpu09 cpu10 cpu11 cpu12 cpu13 cpu14 cpu15 cpu_clk_domain cpu_voltage_domain dvfs_handler mem_ctrls0 mem_ctrls1 mem_ctrls2 mem_ctrls3 ruby sys_port_proxy voltage_domain
boot_osflags=a
cache_line_size=64
clk_domain=system.clk_domain
default_p_state=UNDEFINED
eventq_index=0
exit_on_work_items=false
init_param=0
kernel=
kernel_addr_check=true
kernel_extras=
load_addr_mask=18446744073709551615
load_offset=0
mem_mode=timing
mem_ranges=0:4294967295:0:0:0:0
memories=system.mem_ctrls0 system.mem_ctrls1 system.mem_ctrls2 system.mem_ctrls3
mmap_using_noreserve=false
multi_thread=false
num_work_ids=16
p_state_clk_gate_bins=20
p_state_clk_gate_max=1000000000000
p_state_clk_gate_min=1000
power_model=
readfile=
symbolfile=
thermal_components=
thermal_model=Null
work_begin_ckpt_count=0
work_begin_cpu_id_exit=-1
work_begin_exit_count=0
work_cpus_ckpt_count=0
work_end_ckpt_count=0
work_end_exit_count=0
work_item_id=-1
system_port=system.sys_port_proxy.slave[0]

[system.clk_domain]
type=SrcClockDomain
clock=1000
domain_id=-1
eventq_index=0
init_perf_level=0
voltage_domain=system.voltage_domain

[system.cpu00]
type=TimingSimpleCPU
children=dtb interrupts isa itb tracer workload
branchPred=Null
checker=Null
clk_domain=system.cpu_clk_domain
cpu_id=0
default_p_state=UNDEFINED
do_checkpoint_insts=true
do_quiesce=true
do_statistics_insts=true
dtb=system.cpu00.dtb
eventq_index=0
function_trace=false
function_trace_start=0
interrupts=system.cpu00.interrupts
isa=system.cpu00.isa
itb=system.cpu00.itb
max_insts_all_threads=0
max_insts_any_thread=100000
max_loads_all_threads=0
max_loads_any_thread=0
numThreads=1
p_state_clk_gate_bins=20
p_state_clk_gate_max=1000000000000
p_state_clk_gate_min=1000
power_gating_on_idle=false
power_model=
profile=0
progress_interval=0
pwr_gating_latency=300
simpoint_start_insts=
socket_id=0
switched_out=false
syscallRetryLatency=10000
system=system
tracer=system.cpu00.tracer
wait_for_remote_gdb=false
workload=system.cpu00.workload
dcache_port=system.ruby.l1_cntrl0.sequencer.slave[1]
icache_port=system.ruby.l1_cntrl0.sequencer.slave[0]

[system.cpu00.dtb]
type=RiscvTLB
clk_domain=system.cpu_clk_domain
default_p_state=UNDEFINED
eventq_index=0
p_state_clk_gate_bins=20
p_state_clk_gate_max=1000000000000
p_state_clk_gate_min=1000
power_model=
size=64

[system.cpu00.interrupts]
type=RiscvInterrupts
eventq_index=0

[system.cpu00.isa]
type=RiscvISA
eventq_index=0

[system.cpu00.itb]
type=RiscvTLB
clk_domain=system.cpu_clk_domain
default_p_state=UNDEFINED
eventq_index=0
p_state_clk_gate_bins=20
p_state_clk_gate_max=1000000000000
p_state_clk_gate_min=1000
power_model=
size=64

[system.cpu00.tracer]
type=ExeTracer
eventq_index=0

[system.cpu00.workload]
type=Process
cmd=my_benchmarks/ligra/bin/riscv/BFS -n 16 my_benchmarks/ligra/input/rMatGraph_J_5_100
cwd=/nethome/vsaxena36/ECE6115/gem5_riscv
drivers=
egid=100
env=
errout=cerr
euid=100
eventq_index=0
executable=my_benchmarks/ligra/bin/riscv/BFS
gid=100
input=cin
kvmInSE=false
maxStackSize=67108864
output=cout
pgid=100
pid=100
ppid=0
simpoint=0
system=system
uid=100
useArchPT=false

[system.cpu01]
type=TimingSimpleCPU
children=dtb interrupts isa itb tracer
branchPred=Null
checker=Null
clk_domain=system.cpu_clk_domain
cpu_id=1
default_p_state=UNDEFINED
do_checkpoint_insts=true
do_quiesce=true
do_statistics_insts=true
dtb=system.cpu01.dtb
eventq_index=0
function_trace=false
function_trace_start=0
interrupts=system.cpu01.interrupts
isa=system.cpu01.isa
itb=system.cpu01.itb
max_insts_all_threads=0
max_insts_any_thread=100000
max_loads_all_threads=0
max_loads_any_thread=0
numThreads=1
p_state_clk_gate_bins=20
p_state_clk_gate_max=1000000000000
p_state_clk_gate_min=1000
power_gating_on_idle=false
power_model=
profile=0
progress_interval=0
pwr_gating_latency=300
simpoint_start_insts=
socket_id=0
switched_out=false
syscallRetryLatency=10000
system=system
tracer=system.cpu01.tracer
wait_for_remote_gdb=false
workload=system.cpu00.workload
dcache_port=system.ruby.l1_cntrl1.sequencer.slave[1]
icache_port=system.ruby.l1_cntrl1.sequencer.slave[0]

[system.cpu01.dtb]
type=RiscvTLB
clk_domain=system.cpu_clk_domain
default_p_state=UNDEFINED
eventq_index=0
p_state_clk_gate_bins=20
p_state_clk_gate_max=1000000000000
p_state_clk_gate_min=1000
power_model=
size=64

[system.cpu01.interrupts]
type=RiscvInterrupts
eventq_index=0

[system.cpu01.isa]
type=RiscvISA
eventq_index=0

[system.cpu01.itb]
type=RiscvTLB
clk_domain=system.cpu_clk_domain
default_p_state=UNDEFINED
eventq_index=0
p_state_clk_gate_bins=20
p_state_clk_gate_max=1000000000000
p_state_clk_gate_min=1000
power_model=
size=64

[system.cpu01.tracer]
type=ExeTracer
eventq_index=0

[system.cpu02]
type=TimingSimpleCPU
children=dtb interrupts isa itb tracer
branchPred=Null
checker=Null
clk_domain=system.cpu_clk_domain
cpu_id=2
default_p_state=UNDEFINED
do_checkpoint_insts=true
do_quiesce=true
do_statistics_insts=true
dtb=system.cpu02.dtb
eventq_index=0
function_trace=false
function_trace_start=0
interrupts=system.cpu02.interrupts
isa=system.cpu02.isa
itb=system.cpu02.itb
max_insts_all_threads=0
max_insts_any_thread=100000
max_loads_all_threads=0
max_loads_any_thread=0
numThreads=1
p_state_clk_gate_bins=20
p_state_clk_gate_max=1000000000000
p_state_clk_gate_min=1000
power_gating_on_idle=false
power_model=
profile=0
progress_interval=0
pwr_gating_latency=300
simpoint_start_insts=
socket_id=0
switched_out=false
syscallRetryLatency=10000
system=system
tracer=system.cpu02.tracer
wait_for_remote_gdb=false
workload=system.cpu00.workload
dcache_port=system.ruby.l1_cntrl2.sequencer.slave[1]
icache_port=system.ruby.l1_cntrl2.sequencer.slave[0]

[system.cpu02.dtb]
type=RiscvTLB
clk_domain=system.cpu_clk_domain
default_p_state=UNDEFINED
eventq_index=0
p_state_clk_gate_bins=20
p_state_clk_gate_max=1000000000000
p_state_clk_gate_min=1000
power_model=
size=64

[system.cpu02.interrupts]
type=RiscvInterrupts
eventq_index=0

[system.cpu02.isa]
type=RiscvISA
eventq_index=0

[system.cpu02.itb]
type=RiscvTLB
clk_domain=system.cpu_clk_domain
default_p_state=UNDEFINED
eventq_index=0
p_state_clk_gate_bins=20
p_state_clk_gate_max=1000000000000
p_state_clk_gate_min=1000
power_model=
size=64

[system.cpu02.tracer]
type=ExeTracer
eventq_index=0

[system.cpu03]
type=TimingSimpleCPU
children=dtb interrupts isa itb tracer
branchPred=Null
checker=Null
clk_domain=system.cpu_clk_domain
cpu_id=3
default_p_state=UNDEFINED
do_checkpoint_insts=true
do_quiesce=true
do_statistics_insts=true
dtb=system.cpu03.dtb
eventq_index=0
function_trace=false
function_trace_start=0
interrupts=system.cpu03.interrupts
isa=system.cpu03.isa
itb=system.cpu03.itb
max_insts_all_threads=0
max_insts_any_thread=100000
max_loads_all_threads=0
max_loads_any_thread=0
numThreads=1
p_state_clk_gate_bins=20
p_state_clk_gate_max=1000000000000
p_state_clk_gate_min=1000
power_gating_on_idle=false
power_model=
profile=0
progress_interval=0
pwr_gating_latency=300
simpoint_start_insts=
socket_id=0
switched_out=false
syscallRetryLatency=10000
system=system
tracer=system.cpu03.tracer
wait_for_remote_gdb=false
workload=system.cpu00.workload
dcache_port=system.ruby.l1_cntrl3.sequencer.slave[1]
icache_port=system.ruby.l1_cntrl3.sequencer.slave[0]

[system.cpu03.dtb]
type=RiscvTLB
clk_domain=system.cpu_clk_domain
default_p_state=UNDEFINED
eventq_index=0
p_state_clk_gate_bins=20
p_state_clk_gate_max=1000000000000
p_state_clk_gate_min=1000
power_model=
size=64

[system.cpu03.interrupts]
type=RiscvInterrupts
eventq_index=0

[system.cpu03.isa]
type=RiscvISA
eventq_index=0

[system.cpu03.itb]
type=RiscvTLB
clk_domain=system.cpu_clk_domain
default_p_state=UNDEFINED
eventq_index=0
p_state_clk_gate_bins=20
p_state_clk_gate_max=1000000000000
p_state_clk_gate_min=1000
power_model=
size=64

[system.cpu03.tracer]
type=ExeTracer
eventq_index=0

[system.cpu04]
type=TimingSimpleCPU
children=dtb interrupts isa itb tracer
branchPred=Null
checker=Null
clk_domain=system.cpu_clk_domain
cpu_id=4
default_p_state=UNDEFINED
do_checkpoint_insts=true
do_quiesce=true
do_statistics_insts=true
dtb=system.cpu04.dtb
eventq_index=0
function_trace=false
function_trace_start=0
interrupts=system.cpu04.interrupts
isa=system.cpu04.isa
itb=system.cpu04.itb
max_insts_all_threads=0
max_insts_any_thread=100000
max_loads_all_threads=0
max_loads_any_thread=0
numThreads=1
p_state_clk_gate_bins=20
p_state_clk_gate_max=1000000000000
p_state_clk_gate_min=1000
power_gating_on_idle=false
power_model=
profile=0
progress_interval=0
pwr_gating_latency=300
simpoint_start_insts=
socket_id=0
switched_out=false
syscallRetryLatency=10000
system=system
tracer=system.cpu04.tracer
wait_for_remote_gdb=false
workload=system.cpu00.workload
dcache_port=system.ruby.l1_cntrl4.sequencer.slave[1]
icache_port=system.ruby.l1_cntrl4.sequencer.slave[0]

[system.cpu04.dtb]
type=RiscvTLB
clk_domain=system.cpu_clk_domain
default_p_state=UNDEFINED
eventq_index=0
p_state_clk_gate_bins=20
p_state_clk_gate_max=1000000000000
p_state_clk_gate_min=1000
power_model=
size=64

[system.cpu04.interrupts]
type=RiscvInterrupts
eventq_index=0

[system.cpu04.isa]
type=RiscvISA
eventq_index=0

[system.cpu04.itb]
type=RiscvTLB
clk_domain=system.cpu_clk_domain
default_p_state=UNDEFINED
eventq_index=0
p_state_clk_gate_bins=20
p_state_clk_gate_max=1000000000000
p_state_clk_gate_min=1000
power_model=
size=64

[system.cpu04.tracer]
type=ExeTracer
eventq_index=0

[system.cpu05]
type=TimingSimpleCPU
children=dtb interrupts isa itb tracer
branchPred=Null
checker=Null
clk_domain=system.cpu_clk_domain
cpu_id=5
default_p_state=UNDEFINED
do_checkpoint_insts=true
do_quiesce=true
do_statistics_insts=true
dtb=system.cpu05.dtb
eventq_index=0
function_trace=false
function_trace_start=0
interrupts=system.cpu05.interrupts
isa=system.cpu05.isa
itb=system.cpu05.itb
max_insts_all_threads=0
max_insts_any_thread=100000
max_loads_all_threads=0
max_loads_any_thread=0
numThreads=1
p_state_clk_gate_bins=20
p_state_clk_gate_max=1000000000000
p_state_clk_gate_min=1000
power_gating_on_idle=false
power_model=
profile=0
progress_interval=0
pwr_gating_latency=300
simpoint_start_insts=
socket_id=0
switched_out=false
syscallRetryLatency=10000
system=system
tracer=system.cpu05.tracer
wait_for_remote_gdb=false
workload=system.cpu00.workload
dcache_port=system.ruby.l1_cntrl5.sequencer.slave[1]
icache_port=system.ruby.l1_cntrl5.sequencer.slave[0]

[system.cpu05.dtb]
type=RiscvTLB
clk_domain=system.cpu_clk_domain
default_p_state=UNDEFINED
eventq_index=0
p_state_clk_gate_bins=20
p_state_clk_gate_max=1000000000000
p_state_clk_gate_min=1000
power_model=
size=64

[system.cpu05.interrupts]
type=RiscvInterrupts
eventq_index=0

[system.cpu05.isa]
type=RiscvISA
eventq_index=0

[system.cpu05.itb]
type=RiscvTLB
clk_domain=system.cpu_clk_domain
default_p_state=UNDEFINED
eventq_index=0
p_state_clk_gate_bins=20
p_state_clk_gate_max=1000000000000
p_state_clk_gate_min=1000
power_model=
size=64

[system.cpu05.tracer]
type=ExeTracer
eventq_index=0

[system.cpu06]
type=TimingSimpleCPU
children=dtb interrupts isa itb tracer
branchPred=Null
checker=Null
clk_domain=system.cpu_clk_domain
cpu_id=6
default_p_state=UNDEFINED
do_checkpoint_insts=true
do_quiesce=true
do_statistics_insts=true
dtb=system.cpu06.dtb
eventq_index=0
function_trace=false
function_trace_start=0
interrupts=system.cpu06.interrupts
isa=system.cpu06.isa
itb=system.cpu06.itb
max_insts_all_threads=0
max_insts_any_thread=100000
max_loads_all_threads=0
max_loads_any_thread=0
numThreads=1
p_state_clk_gate_bins=20
p_state_clk_gate_max=1000000000000
p_state_clk_gate_min=1000
power_gating_on_idle=false
power_model=
profile=0
progress_interval=0
pwr_gating_latency=300
simpoint_start_insts=
socket_id=0
switched_out=false
syscallRetryLatency=10000
system=system
tracer=system.cpu06.tracer
wait_for_remote_gdb=false
workload=system.cpu00.workload
dcache_port=system.ruby.l1_cntrl6.sequencer.slave[1]
icache_port=system.ruby.l1_cntrl6.sequencer.slave[0]

[system.cpu06.dtb]
type=RiscvTLB
clk_domain=system.cpu_clk_domain
default_p_state=UNDEFINED
eventq_index=0
p_state_clk_gate_bins=20
p_state_clk_gate_max=1000000000000
p_state_clk_gate_min=1000
power_model=
size=64

[system.cpu06.interrupts]
type=RiscvInterrupts
eventq_index=0

[system.cpu06.isa]
type=RiscvISA
eventq_index=0

[system.cpu06.itb]
type=RiscvTLB
clk_domain=system.cpu_clk_domain
default_p_state=UNDEFINED
eventq_index=0
p_state_clk_gate_bins=20
p_state_clk_gate_max=1000000000000
p_state_clk_gate_min=1000
power_model=
size=64

[system.cpu06.tracer]
type=ExeTracer
eventq_index=0

[system.cpu07]
type=TimingSimpleCPU
children=dtb interrupts isa itb tracer
branchPred=Null
checker=Null
clk_domain=system.cpu_clk_domain
cpu_id=7
default_p_state=UNDEFINED
do_checkpoint_insts=true
do_quiesce=true
do_statistics_insts=true
dtb=system.cpu07.dtb
eventq_index=0
function_trace=false
function_trace_start=0
interrupts=system.cpu07.interrupts
isa=system.cpu07.isa
itb=system.cpu07.itb
max_insts_all_threads=0
max_insts_any_thread=100000
max_loads_all_threads=0
max_loads_any_thread=0
numThreads=1
p_state_clk_gate_bins=20
p_state_clk_gate_max=1000000000000
p_state_clk_gate_min=1000
power_gating_on_idle=false
power_model=
profile=0
progress_interval=0
pwr_gating_latency=300
simpoint_start_insts=
socket_id=0
switched_out=false
syscallRetryLatency=10000
system=system
tracer=system.cpu07.tracer
wait_for_remote_gdb=false
workload=system.cpu00.workload
dcache_port=system.ruby.l1_cntrl7.sequencer.slave[1]
icache_port=system.ruby.l1_cntrl7.sequencer.slave[0]

[system.cpu07.dtb]
type=RiscvTLB
clk_domain=system.cpu_clk_domain
default_p_state=UNDEFINED
eventq_index=0
p_state_clk_gate_bins=20
p_state_clk_gate_max=1000000000000
p_state_clk_gate_min=1000
power_model=
size=64

[system.cpu07.interrupts]
type=RiscvInterrupts
eventq_index=0

[system.cpu07.isa]
type=RiscvISA
eventq_index=0

[system.cpu07.itb]
type=RiscvTLB
clk_domain=system.cpu_clk_domain
default_p_state=UNDEFINED
eventq_index=0
p_state_clk_gate_bins=20
p_state_clk_gate_max=1000000000000
p_state_clk_gate_min=1000
power_model=
size=64

[system.cpu07.tracer]
type=ExeTracer
eventq_index=0

[system.cpu08]
type=TimingSimpleCPU
children=dtb interrupts isa itb tracer
branchPred=Null
checker=Null
clk_domain=system.cpu_clk_domain
cpu_id=8
default_p_state=UNDEFINED
do_checkpoint_insts=true
do_quiesce=true
do_statistics_insts=true
dtb=system.cpu08.dtb
eventq_index=0
function_trace=false
function_trace_start=0
interrupts=system.cpu08.interrupts
isa=system.cpu08.isa
itb=system.cpu08.itb
max_insts_all_threads=0
max_insts_any_thread=100000
max_loads_all_threads=0
max_loads_any_thread=0
numThreads=1
p_state_clk_gate_bins=20
p_state_clk_gate_max=1000000000000
p_state_clk_gate_min=1000
power_gating_on_idle=false
power_model=
profile=0
progress_interval=0
pwr_gating_latency=300
simpoint_start_insts=
socket_id=0
switched_out=false
syscallRetryLatency=10000
system=system
tracer=system.cpu08.tracer
wait_for_remote_gdb=false
workload=system.cpu00.workload
dcache_port=system.ruby.l1_cntrl8.sequencer.slave[1]
icache_port=system.ruby.l1_cntrl8.sequencer.slave[0]

[system.cpu08.dtb]
type=RiscvTLB
clk_domain=system.cpu_clk_domain
default_p_state=UNDEFINED
eventq_index=0
p_state_clk_gate_bins=20
p_state_clk_gate_max=1000000000000
p_state_clk_gate_min=1000
power_model=
size=64

[system.cpu08.interrupts]
type=RiscvInterrupts
eventq_index=0

[system.cpu08.isa]
type=RiscvISA
eventq_index=0

[system.cpu08.itb]
type=RiscvTLB
clk_domain=system.cpu_clk_domain
default_p_state=UNDEFINED
eventq_index=0
p_state_clk_gate_bins=20
p_state_clk_gate_max=1000000000000
p_state_clk_gate_min=1000
power_model=
size=64

[system.cpu08.tracer]
type=ExeTracer
eventq_index=0

[system.cpu09]
type=TimingSimpleCPU
children=dtb interrupts isa itb tracer
branchPred=Null
checker=Null
clk_domain=system.cpu_clk_domain
cpu_id=9
default_p_state=UNDEFINED
do_checkpoint_insts=true
do_quiesce=true
do_statistics_insts=true
dtb=system.cpu09.dtb
eventq_index=0
function_trace=false
function_trace_start=0
interrupts=system.cpu09.interrupts
isa=system.cpu09.isa
itb=system.cpu09.itb
max_insts_all_threads=0
max_insts_any_thread=100000
max_loads_all_threads=0
max_loads_any_thread=0
numThreads=1
p_state_clk_gate_bins=20
p_state_clk_gate_max=1000000000000
p_state_clk_gate_min=1000
power_gating_on_idle=false
power_model=
profile=0
progress_interval=0
pwr_gating_latency=300
simpoint_start_insts=
socket_id=0
switched_out=false
syscallRetryLatency=10000
system=system
tracer=system.cpu09.tracer
wait_for_remote_gdb=false
workload=system.cpu00.workload
dcache_port=system.ruby.l1_cntrl9.sequencer.slave[1]
icache_port=system.ruby.l1_cntrl9.sequencer.slave[0]

[system.cpu09.dtb]
type=RiscvTLB
clk_domain=system.cpu_clk_domain
default_p_state=UNDEFINED
eventq_index=0
p_state_clk_gate_bins=20
p_state_clk_gate_max=1000000000000
p_state_clk_gate_min=1000
power_model=
size=64

[system.cpu09.interrupts]
type=RiscvInterrupts
eventq_index=0

[system.cpu09.isa]
type=RiscvISA
eventq_index=0

[system.cpu09.itb]
type=RiscvTLB
clk_domain=system.cpu_clk_domain
default_p_state=UNDEFINED
eventq_index=0
p_state_clk_gate_bins=20
p_state_clk_gate_max=1000000000000
p_state_clk_gate_min=1000
power_model=
size=64

[system.cpu09.tracer]
type=ExeTracer
eventq_index=0

[system.cpu10]
type=TimingSimpleCPU
children=dtb interrupts isa itb tracer
branchPred=Null
checker=Null
clk_domain=system.cpu_clk_domain
cpu_id=10
default_p_state=UNDEFINED
do_checkpoint_insts=true
do_quiesce=true
do_statistics_insts=true
dtb=system.cpu10.dtb
eventq_index=0
function_trace=false
function_trace_start=0
interrupts=system.cpu10.interrupts
isa=system.cpu10.isa
itb=system.cpu10.itb
max_insts_all_threads=0
max_insts_any_thread=100000
max_loads_all_threads=0
max_loads_any_thread=0
numThreads=1
p_state_clk_gate_bins=20
p_state_clk_gate_max=1000000000000
p_state_clk_gate_min=1000
power_gating_on_idle=false
power_model=
profile=0
progress_interval=0
pwr_gating_latency=300
simpoint_start_insts=
socket_id=0
switched_out=false
syscallRetryLatency=10000
system=system
tracer=system.cpu10.tracer
wait_for_remote_gdb=false
workload=system.cpu00.workload
dcache_port=system.ruby.l1_cntrl10.sequencer.slave[1]
icache_port=system.ruby.l1_cntrl10.sequencer.slave[0]

[system.cpu10.dtb]
type=RiscvTLB
clk_domain=system.cpu_clk_domain
default_p_state=UNDEFINED
eventq_index=0
p_state_clk_gate_bins=20
p_state_clk_gate_max=1000000000000
p_state_clk_gate_min=1000
power_model=
size=64

[system.cpu10.interrupts]
type=RiscvInterrupts
eventq_index=0

[system.cpu10.isa]
type=RiscvISA
eventq_index=0

[system.cpu10.itb]
type=RiscvTLB
clk_domain=system.cpu_clk_domain
default_p_state=UNDEFINED
eventq_index=0
p_state_clk_gate_bins=20
p_state_clk_gate_max=1000000000000
p_state_clk_gate_min=1000
power_model=
size=64

[system.cpu10.tracer]
type=ExeTracer
eventq_index=0

[system.cpu11]
type=TimingSimpleCPU
children=dtb interrupts isa itb tracer
branchPred=Null
checker=Null
clk_domain=system.cpu_clk_domain
cpu_id=11
default_p_state=UNDEFINED
do_checkpoint_insts=true
do_quiesce=true
do_statistics_insts=true
dtb=system.cpu11.dtb
eventq_index=0
function_trace=false
function_trace_start=0
interrupts=system.cpu11.interrupts
isa=system.cpu11.isa
itb=system.cpu11.itb
max_insts_all_threads=0
max_insts_any_thread=100000
max_loads_all_threads=0
max_loads_any_thread=0
numThreads=1
p_state_clk_gate_bins=20
p_state_clk_gate_max=1000000000000
p_state_clk_gate_min=1000
power_gating_on_idle=false
power_model=
profile=0
progress_interval=0
pwr_gating_latency=300
simpoint_start_insts=
socket_id=0
switched_out=false
syscallRetryLatency=10000
system=system
tracer=system.cpu11.tracer
wait_for_remote_gdb=false
workload=system.cpu00.workload
dcache_port=system.ruby.l1_cntrl11.sequencer.slave[1]
icache_port=system.ruby.l1_cntrl11.sequencer.slave[0]

[system.cpu11.dtb]
type=RiscvTLB
clk_domain=system.cpu_clk_domain
default_p_state=UNDEFINED
eventq_index=0
p_state_clk_gate_bins=20
p_state_clk_gate_max=1000000000000
p_state_clk_gate_min=1000
power_model=
size=64

[system.cpu11.interrupts]
type=RiscvInterrupts
eventq_index=0

[system.cpu11.isa]
type=RiscvISA
eventq_index=0

[system.cpu11.itb]
type=RiscvTLB
clk_domain=system.cpu_clk_domain
default_p_state=UNDEFINED
eventq_index=0
p_state_clk_gate_bins=20
p_state_clk_gate_max=1000000000000
p_state_clk_gate_min=1000
power_model=
size=64

[system.cpu11.tracer]
type=ExeTracer
eventq_index=0

[system.cpu12]
type=TimingSimpleCPU
children=dtb interrupts isa itb tracer
branchPred=Null
checker=Null
clk_domain=system.cpu_clk_domain
cpu_id=12
default_p_state=UNDEFINED
do_checkpoint_insts=true
do_quiesce=true
do_statistics_insts=true
dtb=system.cpu12.dtb
eventq_index=0
function_trace=false
function_trace_start=0
interrupts=system.cpu12.interrupts
isa=system.cpu12.isa
itb=system.cpu12.itb
max_insts_all_threads=0
max_insts_any_thread=100000
max_loads_all_threads=0
max_loads_any_thread=0
numThreads=1
p_state_clk_gate_bins=20
p_state_clk_gate_max=1000000000000
p_state_clk_gate_min=1000
power_gating_on_idle=false
power_model=
profile=0
progress_interval=0
pwr_gating_latency=300
simpoint_start_insts=
socket_id=0
switched_out=false
syscallRetryLatency=10000
system=system
tracer=system.cpu12.tracer
wait_for_remote_gdb=false
workload=system.cpu00.workload
dcache_port=system.ruby.l1_cntrl12.sequencer.slave[1]
icache_port=system.ruby.l1_cntrl12.sequencer.slave[0]

[system.cpu12.dtb]
type=RiscvTLB
clk_domain=system.cpu_clk_domain
default_p_state=UNDEFINED
eventq_index=0
p_state_clk_gate_bins=20
p_state_clk_gate_max=1000000000000
p_state_clk_gate_min=1000
power_model=
size=64

[system.cpu12.interrupts]
type=RiscvInterrupts
eventq_index=0

[system.cpu12.isa]
type=RiscvISA
eventq_index=0

[system.cpu12.itb]
type=RiscvTLB
clk_domain=system.cpu_clk_domain
default_p_state=UNDEFINED
eventq_index=0
p_state_clk_gate_bins=20
p_state_clk_gate_max=1000000000000
p_state_clk_gate_min=1000
power_model=
size=64

[system.cpu12.tracer]
type=ExeTracer
eventq_index=0

[system.cpu13]
type=TimingSimpleCPU
children=dtb interrupts isa itb tracer
branchPred=Null
checker=Null
clk_domain=system.cpu_clk_domain
cpu_id=13
default_p_state=UNDEFINED
do_checkpoint_insts=true
do_quiesce=true
do_statistics_insts=true
dtb=system.cpu13.dtb
eventq_index=0
function_trace=false
function_trace_start=0
interrupts=system.cpu13.interrupts
isa=system.cpu13.isa
itb=system.cpu13.itb
max_insts_all_threads=0
max_insts_any_thread=100000
max_loads_all_threads=0
max_loads_any_thread=0
numThreads=1
p_state_clk_gate_bins=20
p_state_clk_gate_max=1000000000000
p_state_clk_gate_min=1000
power_gating_on_idle=false
power_model=
profile=0
progress_interval=0
pwr_gating_latency=300
simpoint_start_insts=
socket_id=0
switched_out=false
syscallRetryLatency=10000
system=system
tracer=system.cpu13.tracer
wait_for_remote_gdb=false
workload=system.cpu00.workload
dcache_port=system.ruby.l1_cntrl13.sequencer.slave[1]
icache_port=system.ruby.l1_cntrl13.sequencer.slave[0]

[system.cpu13.dtb]
type=RiscvTLB
clk_domain=system.cpu_clk_domain
default_p_state=UNDEFINED
eventq_index=0
p_state_clk_gate_bins=20
p_state_clk_gate_max=1000000000000
p_state_clk_gate_min=1000
power_model=
size=64

[system.cpu13.interrupts]
type=RiscvInterrupts
eventq_index=0

[system.cpu13.isa]
type=RiscvISA
eventq_index=0

[system.cpu13.itb]
type=RiscvTLB
clk_domain=system.cpu_clk_domain
default_p_state=UNDEFINED
eventq_index=0
p_state_clk_gate_bins=20
p_state_clk_gate_max=1000000000000
p_state_clk_gate_min=1000
power_model=
size=64

[system.cpu13.tracer]
type=ExeTracer
eventq_index=0

[system.cpu14]
type=TimingSimpleCPU
children=dtb interrupts isa itb tracer
branchPred=Null
checker=Null
clk_domain=system.cpu_clk_domain
cpu_id=14
default_p_state=UNDEFINED
do_checkpoint_insts=true
do_quiesce=true
do_statistics_insts=true
dtb=system.cpu14.dtb
eventq_index=0
function_trace=false
function_trace_start=0
interrupts=system.cpu14.interrupts
isa=system.cpu14.isa
itb=system.cpu14.itb
max_insts_all_threads=0
max_insts_any_thread=100000
max_loads_all_threads=0
max_loads_any_thread=0
numThreads=1
p_state_clk_gate_bins=20
p_state_clk_gate_max=1000000000000
p_state_clk_gate_min=1000
power_gating_on_idle=false
power_model=
profile=0
progress_interval=0
pwr_gating_latency=300
simpoint_start_insts=
socket_id=0
switched_out=false
syscallRetryLatency=10000
system=system
tracer=system.cpu14.tracer
wait_for_remote_gdb=false
workload=system.cpu00.workload
dcache_port=system.ruby.l1_cntrl14.sequencer.slave[1]
icache_port=system.ruby.l1_cntrl14.sequencer.slave[0]

[system.cpu14.dtb]
type=RiscvTLB
clk_domain=system.cpu_clk_domain
default_p_state=UNDEFINED
eventq_index=0
p_state_clk_gate_bins=20
p_state_clk_gate_max=1000000000000
p_state_clk_gate_min=1000
power_model=
size=64

[system.cpu14.interrupts]
type=RiscvInterrupts
eventq_index=0

[system.cpu14.isa]
type=RiscvISA
eventq_index=0

[system.cpu14.itb]
type=RiscvTLB
clk_domain=system.cpu_clk_domain
default_p_state=UNDEFINED
eventq_index=0
p_state_clk_gate_bins=20
p_state_clk_gate_max=1000000000000
p_state_clk_gate_min=1000
power_model=
size=64

[system.cpu14.tracer]
type=ExeTracer
eventq_index=0

[system.cpu15]
type=TimingSimpleCPU
children=dtb interrupts isa itb tracer
branchPred=Null
checker=Null
clk_domain=system.cpu_clk_domain
cpu_id=15
default_p_state=UNDEFINED
do_checkpoint_insts=true
do_quiesce=true
do_statistics_insts=true
dtb=system.cpu15.dtb
eventq_index=0
function_trace=false
function_trace_start=0
interrupts=system.cpu15.interrupts
isa=system.cpu15.isa
itb=system.cpu15.itb
max_insts_all_threads=0
max_insts_any_thread=100000
max_loads_all_threads=0
max_loads_any_thread=0
numThreads=1
p_state_clk_gate_bins=20
p_state_clk_gate_max=1000000000000
p_state_clk_gate_min=1000
power_gating_on_idle=false
power_model=
profile=0
progress_interval=0
pwr_gating_latency=300
simpoint_start_insts=
socket_id=0
switched_out=false
syscallRetryLatency=10000
system=system
tracer=system.cpu15.tracer
wait_for_remote_gdb=false
workload=system.cpu00.workload
dcache_port=system.ruby.l1_cntrl15.sequencer.slave[1]
icache_port=system.ruby.l1_cntrl15.sequencer.slave[0]

[system.cpu15.dtb]
type=RiscvTLB
clk_domain=system.cpu_clk_domain
default_p_state=UNDEFINED
eventq_index=0
p_state_clk_gate_bins=20
p_state_clk_gate_max=1000000000000
p_state_clk_gate_min=1000
power_model=
size=64

[system.cpu15.interrupts]
type=RiscvInterrupts
eventq_index=0

[system.cpu15.isa]
type=RiscvISA
eventq_index=0

[system.cpu15.itb]
type=RiscvTLB
clk_domain=system.cpu_clk_domain
default_p_state=UNDEFINED
eventq_index=0
p_state_clk_gate_bins=20
p_state_clk_gate_max=1000000000000
p_state_clk_gate_min=1000
power_model=
size=64

[system.cpu15.tracer]
type=ExeTracer
eventq_index=0

[system.cpu_clk_domain]
type=SrcClockDomain
clock=500
domain_id=-1
eventq_index=0
init_perf_level=0
voltage_domain=system.cpu_voltage_domain

[system.cpu_voltage_domain]
type=VoltageDomain
eventq_index=0
voltage=1.0

[system.dvfs_handler]
type=DVFSHandler
domains=
enable=false
eventq_index=0
sys_clk_domain=system.clk_domain
transition_latency=100000000

[system.mem_ctrls0]
type=DRAMCtrl
IDD0=0.055
IDD02=0.0
IDD2N=0.032
IDD2N2=0.0
IDD2P0=0.0
IDD2P02=0.0
IDD2P1=0.032
IDD2P12=0.0
IDD3N=0.038
IDD3N2=0.0
IDD3P0=0.0
IDD3P02=0.0
IDD3P1=0.038
IDD3P12=0.0
IDD4R=0.157
IDD4R2=0.0
IDD4W=0.125
IDD4W2=0.0
IDD5=0.235
IDD52=0.0
IDD6=0.02
IDD62=0.0
VDD=1.5
VDD2=0.0
activation_limit=4
addr_mapping=RoRaBaCoCh
bank_groups_per_rank=0
banks_per_rank=8
burst_length=8
channels=4
clk_domain=system.clk_domain
conf_table_reported=true
default_p_state=UNDEFINED
device_bus_width=8
device_rowbuffer_size=1024
device_size=536870912
devices_per_rank=8
dll=true
eventq_index=0
in_addr_map=true
kvm_map=true
max_accesses_per_row=16
mem_sched_policy=frfcfs
min_writes_per_switch=16
null=false
p_state_clk_gate_bins=20
p_state_clk_gate_max=1000000000000
p_state_clk_gate_min=1000
page_policy=open_adaptive
power_model=
qos_masters=               
qos_policy=Null
qos_priorities=1
qos_priority_escalation=false
qos_q_policy=fifo
qos_syncro_scheduler=false
qos_turnaround_policy=Null
range=0:4294967295:7:21:2:0
ranks_per_channel=2
read_buffer_size=32
static_backend_latency=10000
static_frontend_latency=10000
tBURST=5000
tCCD_L=0
tCCD_L_WR=0
tCK=1250
tCL=13750
tCS=2500
tRAS=35000
tRCD=13750
tREFI=7800000
tRFC=260000
tRP=13750
tRRD=6000
tRRD_L=0
tRTP=7500
tRTW=2500
tWR=15000
tWTR=7500
tXAW=30000
tXP=6000
tXPDLL=0
tXS=270000
tXSDLL=0
write_buffer_size=64
write_high_thresh_perc=85
write_low_thresh_perc=50
port=system.ruby.dir_cntrl0.memory

[system.mem_ctrls1]
type=DRAMCtrl
IDD0=0.055
IDD02=0.0
IDD2N=0.032
IDD2N2=0.0
IDD2P0=0.0
IDD2P02=0.0
IDD2P1=0.032
IDD2P12=0.0
IDD3N=0.038
IDD3N2=0.0
IDD3P0=0.0
IDD3P02=0.0
IDD3P1=0.038
IDD3P12=0.0
IDD4R=0.157
IDD4R2=0.0
IDD4W=0.125
IDD4W2=0.0
IDD5=0.235
IDD52=0.0
IDD6=0.02
IDD62=0.0
VDD=1.5
VDD2=0.0
activation_limit=4
addr_mapping=RoRaBaCoCh
bank_groups_per_rank=0
banks_per_rank=8
burst_length=8
channels=4
clk_domain=system.clk_domain
conf_table_reported=true
default_p_state=UNDEFINED
device_bus_width=8
device_rowbuffer_size=1024
device_size=536870912
devices_per_rank=8
dll=true
eventq_index=0
in_addr_map=true
kvm_map=true
max_accesses_per_row=16
mem_sched_policy=frfcfs
min_writes_per_switch=16
null=false
p_state_clk_gate_bins=20
p_state_clk_gate_max=1000000000000
p_state_clk_gate_min=1000
page_policy=open_adaptive
power_model=
qos_masters=               
qos_policy=Null
qos_priorities=1
qos_priority_escalation=false
qos_q_policy=fifo
qos_syncro_scheduler=false
qos_turnaround_policy=Null
range=0:4294967295:7:21:2:1
ranks_per_channel=2
read_buffer_size=32
static_backend_latency=10000
static_frontend_latency=10000
tBURST=5000
tCCD_L=0
tCCD_L_WR=0
tCK=1250
tCL=13750
tCS=2500
tRAS=35000
tRCD=13750
tREFI=7800000
tRFC=260000
tRP=13750
tRRD=6000
tRRD_L=0
tRTP=7500
tRTW=2500
tWR=15000
tWTR=7500
tXAW=30000
tXP=6000
tXPDLL=0